*HEADING
ex25 stacked-NS GAAFET (Wang 2023) Lrcs=0.0nm
*USER ELEMENT, NODES=8, TYPE=U1, PROPERTIES=2, COORDINATES=3, VARIABLES=1, UNSYMM
1,2,3
*NODE
1, 10.00000, 0.00000, -1.00000
2, 10.50000, 0.00000, -1.00000
3, 10.50000, 2.00000, -1.00000
4, 10.00000, 2.00000, -1.00000
5, 10.00000, 0.00000, -0.50000
6, 10.50000, 0.00000, -0.50000
7, 10.50000, 2.00000, -0.50000
8, 10.00000, 2.00000, -0.50000
9, 11.00000, 0.00000, -1.00000
10, 11.00000, 2.00000, -1.00000
11, 11.00000, 0.00000, -0.50000
12, 11.00000, 2.00000, -0.50000
13, 11.50000, 0.00000, -1.00000
14, 11.50000, 2.00000, -1.00000
15, 11.50000, 0.00000, -0.50000
16, 11.50000, 2.00000, -0.50000
17, 12.00000, 0.00000, -1.00000
18, 12.00000, 2.00000, -1.00000
19, 12.00000, 0.00000, -0.50000
20, 12.00000, 2.00000, -0.50000
** ... 22072 like lines cut
*ELEMENT, TYPE=U1, ELSET=ENSD
1293, 2107, 2108, 2109, 2110, 2111, 2112, 2113, 2114
1294, 2108, 2115, 2116, 2109, 2112, 2117, 2118, 2113
1295, 2115, 2119, 2120, 2116, 2117, 2121, 2122, 2118
1296, 2119, 2123, 2124, 2120, 2121, 2125, 2126, 2122
1297, 2123, 1405, 1408, 2124, 2125, 2127, 2128, 2126
1336, 1481, 2205, 2206, 1482, 2203, 2207, 2208, 2204
1337, 2205, 2209, 2210, 2206, 2207, 2211, 2212, 2208
1338, 2209, 2213, 2214, 2210, 2211, 2215, 2216, 2212
1339, 2213, 2217, 2218, 2214, 2215, 2219, 2220, 2216
1340, 2217, 2221, 2222, 2218, 2219, 2223, 2224, 2220
1341, 2110, 2109, 2225, 2226, 2114, 2113, 2227, 2228
1342, 2109, 2116, 2229, 2225, 2113, 2118, 2230, 2227
1343, 2116, 2120, 2231, 2229, 2118, 2122, 2232, 2230
1344, 2120, 2124, 2233, 2231, 2122, 2126, 2234, 2232
1345, 2124, 1408, 1484, 2233, 2126, 2128, 2235, 2234
1384, 1482, 2206, 2274, 1521, 2204, 2208, 2275, 2273
1385, 2206, 2210, 2276, 2274, 2208, 2212, 2277, 2275
1386, 2210, 2214, 2278, 2276, 2212, 2216, 2279, 2277
1387, 2214, 2218, 2280, 2278, 2216, 2220, 2281, 2279
1388, 2218, 2222, 2282, 2280, 2220, 2224, 2283, 2281
** ... 3430 like lines cut
*ELEMENT, TYPE=U1, ELSET=ENCH
1298, 1405, 1406, 1407, 1408, 2127, 2129, 2130, 2128
1299, 1406, 1409, 1410, 1407, 2129, 2131, 2132, 2130
1300, 1409, 1411, 1412, 1410, 2131, 2133, 2134, 2132
1301, 1411, 1413, 1414, 1412, 2133, 2135, 2136, 2134
1302, 1413, 1415, 1416, 1414, 2135, 2137, 2138, 2136
1303, 1415, 1417, 1418, 1416, 2137, 2139, 2140, 2138
1304, 1417, 1419, 1420, 1418, 2139, 2141, 2142, 2140
1305, 1419, 1421, 1422, 1420, 2141, 2143, 2144, 2142
1306, 1421, 1423, 1424, 1422, 2143, 2145, 2146, 2144
1307, 1423, 1425, 1426, 1424, 2145, 2147, 2148, 2146
1308, 1425, 1427, 1428, 1426, 2147, 2149, 2150, 2148
1309, 1427, 1429, 1430, 1428, 2149, 2151, 2152, 2150
1310, 1429, 1431, 1432, 1430, 2151, 2153, 2154, 2152
1311, 1431, 1433, 1434, 1432, 2153, 2155, 2156, 2154
1312, 1433, 1435, 1436, 1434, 2155, 2157, 2158, 2156
1313, 1435, 1437, 1438, 1436, 2157, 2159, 2160, 2158
1314, 1437, 1439, 1440, 1438, 2159, 2161, 2162, 2160
1315, 1439, 1441, 1442, 1440, 2161, 2163, 2164, 2162
1316, 1441, 1443, 1444, 1442, 2163, 2165, 2166, 2164
1317, 1443, 1445, 1446, 1444, 2165, 2167, 2168, 2166
** ... 10240 like lines cut
*ELEMENT, TYPE=U1, ELSET=EOX
1, 1, 2, 3, 4, 5, 6, 7, 8
2, 2, 9, 10, 3, 6, 11, 12, 7
3, 9, 13, 14, 10, 11, 15, 16, 12
4, 13, 17, 18, 14, 15, 19, 20, 16
5, 17, 21, 22, 18, 19, 23, 24, 20
6, 21, 25, 26, 22, 23, 27, 28, 24
7, 25, 29, 30, 26, 27, 31, 32, 28
8, 29, 33, 34, 30, 31, 35, 36, 32
9, 33, 37, 38, 34, 35, 39, 40, 36
10, 37, 41, 42, 38, 39, 43, 44, 40
11, 41, 45, 46, 42, 43, 47, 48, 44
12, 45, 49, 50, 46, 47, 51, 52, 48
13, 49, 53, 54, 50, 51, 55, 56, 52
14, 53, 57, 58, 54, 55, 59, 60, 56
15, 57, 61, 62, 58, 59, 63, 64, 60
16, 61, 65, 66, 62, 63, 67, 68, 64
17, 65, 69, 70, 66, 67, 71, 72, 68
18, 69, 73, 74, 70, 71, 75, 76, 72
19, 73, 77, 78, 74, 75, 79, 80, 76
20, 77, 81, 82, 78, 79, 83, 84, 80
** ... 5564 like lines cut
*UEL PROPERTY, ELSET=ENSD
1, 2.000000e+10
*UEL PROPERTY, ELSET=ENCH
1, -1.000000e+05
*UEL PROPERTY, ELSET=EOX
0, 0.
*ELEMENT, TYPE=C3D8, ELSET=VNSD
501293, 2107, 2108, 2109, 2110, 2111, 2112, 2113, 2114
501294, 2108, 2115, 2116, 2109, 2112, 2117, 2118, 2113
501295, 2115, 2119, 2120, 2116, 2117, 2121, 2122, 2118
501296, 2119, 2123, 2124, 2120, 2121, 2125, 2126, 2122
501297, 2123, 1405, 1408, 2124, 2125, 2127, 2128, 2126
501336, 1481, 2205, 2206, 1482, 2203, 2207, 2208, 2204
501337, 2205, 2209, 2210, 2206, 2207, 2211, 2212, 2208
501338, 2209, 2213, 2214, 2210, 2211, 2215, 2216, 2212
501339, 2213, 2217, 2218, 2214, 2215, 2219, 2220, 2216
501340, 2217, 2221, 2222, 2218, 2219, 2223, 2224, 2220
501341, 2110, 2109, 2225, 2226, 2114, 2113, 2227, 2228
501342, 2109, 2116, 2229, 2225, 2113, 2118, 2230, 2227
501343, 2116, 2120, 2231, 2229, 2118, 2122, 2232, 2230
501344, 2120, 2124, 2233, 2231, 2122, 2126, 2234, 2232
501345, 2124, 1408, 1484, 2233, 2126, 2128, 2235, 2234
501384, 1482, 2206, 2274, 1521, 2204, 2208, 2275, 2273
501385, 2206, 2210, 2276, 2274, 2208, 2212, 2277, 2275
501386, 2210, 2214, 2278, 2276, 2212, 2216, 2279, 2277
501387, 2214, 2218, 2280, 2278, 2216, 2220, 2281, 2279
501388, 2218, 2222, 2282, 2280, 2220, 2224, 2283, 2281
** ... 3430 like lines cut
*ELEMENT, TYPE=C3D8, ELSET=VNCH
501298, 1405, 1406, 1407, 1408, 2127, 2129, 2130, 2128
501299, 1406, 1409, 1410, 1407, 2129, 2131, 2132, 2130
501300, 1409, 1411, 1412, 1410, 2131, 2133, 2134, 2132
501301, 1411, 1413, 1414, 1412, 2133, 2135, 2136, 2134
501302, 1413, 1415, 1416, 1414, 2135, 2137, 2138, 2136
501303, 1415, 1417, 1418, 1416, 2137, 2139, 2140, 2138
501304, 1417, 1419, 1420, 1418, 2139, 2141, 2142, 2140
501305, 1419, 1421, 1422, 1420, 2141, 2143, 2144, 2142
501306, 1421, 1423, 1424, 1422, 2143, 2145, 2146, 2144
501307, 1423, 1425, 1426, 1424, 2145, 2147, 2148, 2146
501308, 1425, 1427, 1428, 1426, 2147, 2149, 2150, 2148
501309, 1427, 1429, 1430, 1428, 2149, 2151, 2152, 2150
501310, 1429, 1431, 1432, 1430, 2151, 2153, 2154, 2152
501311, 1431, 1433, 1434, 1432, 2153, 2155, 2156, 2154
501312, 1433, 1435, 1436, 1434, 2155, 2157, 2158, 2156
501313, 1435, 1437, 1438, 1436, 2157, 2159, 2160, 2158
501314, 1437, 1439, 1440, 1438, 2159, 2161, 2162, 2160
501315, 1439, 1441, 1442, 1440, 2161, 2163, 2164, 2162
501316, 1441, 1443, 1444, 1442, 2163, 2165, 2166, 2164
501317, 1443, 1445, 1446, 1444, 2165, 2167, 2168, 2166
** ... 10240 like lines cut
*ELEMENT, TYPE=C3D8, ELSET=VOX
500001, 1, 2, 3, 4, 5, 6, 7, 8
500002, 2, 9, 10, 3, 6, 11, 12, 7
500003, 9, 13, 14, 10, 11, 15, 16, 12
500004, 13, 17, 18, 14, 15, 19, 20, 16
500005, 17, 21, 22, 18, 19, 23, 24, 20
500006, 21, 25, 26, 22, 23, 27, 28, 24
500007, 25, 29, 30, 26, 27, 31, 32, 28
500008, 29, 33, 34, 30, 31, 35, 36, 32
500009, 33, 37, 38, 34, 35, 39, 40, 36
500010, 37, 41, 42, 38, 39, 43, 44, 40
500011, 41, 45, 46, 42, 43, 47, 48, 44
500012, 45, 49, 50, 46, 47, 51, 52, 48
500013, 49, 53, 54, 50, 51, 55, 56, 52
500014, 53, 57, 58, 54, 55, 59, 60, 56
500015, 57, 61, 62, 58, 59, 63, 64, 60
500016, 61, 65, 66, 62, 63, 67, 68, 64
500017, 65, 69, 70, 66, 67, 71, 72, 68
500018, 69, 73, 74, 70, 71, 75, 76, 72
500019, 73, 77, 78, 74, 75, 79, 80, 76
500020, 77, 81, 82, 78, 79, 83, 84, 80
** ... 5564 like lines cut
*ELSET, ELSET=EVIS
VNSD, VNCH, VOX
*MATERIAL, NAME=MDUM
*ELASTIC
1e-20, 0.
*USER OUTPUT VARIABLES
2
*SOLID SECTION, ELSET=EVIS, MATERIAL=MDUM
*NSET, NSET=SRC
2107, 2110, 2111, 2114, 2226, 2228, 2285, 2287, 2344, 2346, 2403, 2405
2462, 2464, 2521, 2523, 2580, 2582, 2639, 2641, 2698, 2700, 2757, 2759
2816, 2818, 2875, 2877, 2934, 2936, 2993, 2995, 3129, 3132, 3228, 3277
3326, 3375, 3424, 3473, 3522, 3571, 3620, 3669, 3718, 3767, 3816, 3865
3991, 3994, 4090, 4139, 4188, 4237, 4286, 4335, 4384, 4433, 4482, 4531
4580, 4629, 4678, 4727, 4853, 4856, 4952, 5001, 5050, 5099, 5148, 5197
5246, 5295, 5344, 5393, 5442, 5491, 5540, 5589, 5715, 5718, 5814, 5863
5912, 5961, 6010, 6059, 6108, 6157, 6206, 6255, 6304, 6353, 6402, 6451
6577, 6580, 6676, 6725, 6774, 6823, 6872, 6921, 6970, 7019, 7068, 7117
7166, 7215, 7264, 7313, 7439, 7442, 7538, 7587, 7636, 7685, 7734, 7783
7832, 7881, 7930, 7979, 8028, 8077, 8126, 8175, 8301, 8304, 8400, 8449
8498, 8547, 8596, 8645, 8694, 8743, 8792, 8841, 8890, 8939, 8988, 9037
9163, 9166, 9262, 9311, 9360, 9409, 9458, 9507, 9556, 9605, 9654, 9703
9752, 9801, 9850, 9899, 10025, 10028, 10124, 10173, 10222, 10271, 10320, 10369
10418, 10467, 10516, 10565, 10614, 10663, 10712, 10761, 10887, 10890, 10986, 11035
11084, 11133, 11182, 11231, 11280, 11329, 11378, 11427, 11476, 11525, 11574, 11623
11749, 11752, 11848, 11897, 11946, 11995, 12044, 12093, 12142, 12191, 12240, 12289
12338, 12387, 12436, 12485, 12611, 12614, 12710, 12759, 12808, 12857, 12906, 12955
13004, 13053, 13102, 13151, 13200, 13249, 13298, 13347, 13473, 13476, 13572, 13621
13670, 13719, 13768, 13817, 13866, 13915, 13964, 14013, 14062, 14111, 14160, 14209
** ... 12 like lines cut
*NSET, NSET=DRN
2221, 2222, 2223, 2224, 2282, 2283, 2341, 2342, 2400, 2401, 2459, 2460
2518, 2519, 2577, 2578, 2636, 2637, 2695, 2696, 2754, 2755, 2813, 2814
2872, 2873, 2931, 2932, 2990, 2991, 3049, 3050, 3225, 3226, 3275, 3324
3373, 3422, 3471, 3520, 3569, 3618, 3667, 3716, 3765, 3814, 3863, 3912
4087, 4088, 4137, 4186, 4235, 4284, 4333, 4382, 4431, 4480, 4529, 4578
4627, 4676, 4725, 4774, 4949, 4950, 4999, 5048, 5097, 5146, 5195, 5244
5293, 5342, 5391, 5440, 5489, 5538, 5587, 5636, 5811, 5812, 5861, 5910
5959, 6008, 6057, 6106, 6155, 6204, 6253, 6302, 6351, 6400, 6449, 6498
6673, 6674, 6723, 6772, 6821, 6870, 6919, 6968, 7017, 7066, 7115, 7164
7213, 7262, 7311, 7360, 7535, 7536, 7585, 7634, 7683, 7732, 7781, 7830
7879, 7928, 7977, 8026, 8075, 8124, 8173, 8222, 8397, 8398, 8447, 8496
8545, 8594, 8643, 8692, 8741, 8790, 8839, 8888, 8937, 8986, 9035, 9084
9259, 9260, 9309, 9358, 9407, 9456, 9505, 9554, 9603, 9652, 9701, 9750
9799, 9848, 9897, 9946, 10121, 10122, 10171, 10220, 10269, 10318, 10367, 10416
10465, 10514, 10563, 10612, 10661, 10710, 10759, 10808, 10983, 10984, 11033, 11082
11131, 11180, 11229, 11278, 11327, 11376, 11425, 11474, 11523, 11572, 11621, 11670
11845, 11846, 11895, 11944, 11993, 12042, 12091, 12140, 12189, 12238, 12287, 12336
12385, 12434, 12483, 12532, 12707, 12708, 12757, 12806, 12855, 12904, 12953, 13002
13051, 13100, 13149, 13198, 13247, 13296, 13345, 13394, 13569, 13570, 13619, 13668
13717, 13766, 13815, 13864, 13913, 13962, 14011, 14060, 14109, 14158, 14207, 14256
** ... 12 like lines cut
*NSET, NSET=GATE
41, 42, 45, 46, 49, 50, 53, 54, 57, 58, 61, 62
65, 66, 69, 70, 73, 74, 77, 78, 81, 82, 85, 86
89, 90, 93, 94, 97, 98, 101, 102, 105, 106, 109, 110
113, 114, 177, 179, 181, 183, 185, 187, 189, 191, 193, 195
197, 199, 201, 203, 205, 207, 209, 211, 213, 255, 257, 259
261, 263, 265, 267, 269, 271, 273, 275, 277, 279, 281, 283
285, 287, 289, 291, 333, 335, 337, 339, 341, 343, 345, 347
349, 351, 353, 355, 357, 359, 361, 363, 365, 367, 369, 411
413, 415, 417, 419, 421, 423, 425, 427, 429, 431, 433, 435
437, 439, 441, 443, 445, 447, 489, 491, 493, 495, 497, 499
501, 503, 505, 507, 509, 511, 513, 515, 517, 519, 521, 523
525, 567, 569, 571, 573, 575, 577, 579, 581, 583, 585, 587
589, 591, 593, 595, 597, 599, 601, 603, 645, 647, 649, 651
653, 655, 657, 659, 661, 663, 665, 667, 669, 671, 673, 675
677, 679, 681, 723, 725, 727, 729, 731, 733, 735, 737, 739
741, 743, 745, 747, 749, 751, 753, 755, 757, 759, 801, 803
805, 807, 809, 811, 813, 815, 817, 819, 821, 823, 825, 827
829, 831, 833, 835, 837, 879, 881, 883, 885, 887, 889, 891
893, 895, 897, 899, 901, 903, 905, 907, 909, 911, 913, 915
957, 959, 961, 963, 965, 967, 969, 971, 973, 975, 977, 979
** ... 102 like lines cut
*NSET, NSET=OXI
1, 2, 3, 4, 5, 6, 7, 8, 9, 10, 11, 12
13, 14, 15, 16, 17, 18, 19, 20, 21, 22, 23, 24
25, 26, 27, 28, 29, 30, 31, 32, 33, 34, 35, 36
37, 38, 39, 40, 41, 42, 43, 44, 45, 46, 47, 48
49, 50, 51, 52, 53, 54, 55, 56, 57, 58, 59, 60
61, 62, 63, 64, 65, 66, 67, 68, 69, 70, 71, 72
73, 74, 75, 76, 77, 78, 79, 80, 81, 82, 83, 84
85, 86, 87, 88, 89, 90, 91, 92, 93, 94, 95, 96
97, 98, 99, 100, 101, 102, 103, 104, 105, 106, 107, 108
109, 110, 111, 112, 113, 114, 115, 116, 117, 118, 119, 120
121, 122, 123, 124, 125, 126, 127, 128, 129, 130, 131, 132
133, 134, 135, 136, 137, 138, 139, 140, 141, 142, 143, 144
145, 146, 147, 148, 149, 150, 151, 152, 153, 154, 155, 156
157, 158, 159, 160, 161, 162, 163, 164, 165, 166, 167, 168
169, 170, 171, 172, 173, 174, 175, 176, 177, 178, 179, 180
181, 182, 183, 184, 185, 186, 187, 188, 189, 190, 191, 192
193, 194, 195, 196, 197, 198, 199, 200, 201, 202, 203, 204
205, 206, 207, 208, 209, 210, 211, 212, 213, 214, 215, 216
217, 218, 219, 220, 221, 222, 223, 224, 225, 226, 227, 228
229, 230, 231, 232, 233, 234, 235, 236, 237, 238, 239, 240
** ... 451 like lines cut
*NSET, NSET=NALL, GENERATE
1, 22092, 1
*STEP, INC=400, UNSYMM=YES
*STATIC
0.05, 1.0, 1e-9, 0.05
*CONTROLS, PARAMETERS=FIELD
1e-4,,,,,,,1e-4
*BOUNDARY
SRC, 1, 1, 2.37189981e+01
SRC, 2, 3, 0.
DRN, 1, 1, 2.37189981e+01
DRN, 2, 2, 0.00000000e+00
DRN, 3, 3, 0.00000000e+00
GATE, 1, 1, 0.00000000e+00
OXI, 2, 3, 0.
*END STEP
*STEP, INC=400, UNSYMM=YES
*STATIC
0.1, 1.0, 1e-9, 0.1
*CONTROLS, PARAMETERS=FIELD
1e-4,,,,,,,1e-4
*BOUNDARY
SRC, 1, 1, 2.37189981e+01
SRC, 2, 3, 0.
DRN, 1, 1, 5.07983018e+01
DRN, 2, 2, 2.70793037e+01
DRN, 3, 3, 2.70793037e+01
GATE, 1, 1, -1.54738878e+01
OXI, 2, 3, 0.
*END STEP
*STEP, INC=400, UNSYMM=YES
*STATIC
0.03333333333333333, 1.0, 1e-9, 0.03333333333333333
*CONTROLS, PARAMETERS=FIELD
1e-4,,,,,,,1e-4
*BOUNDARY
SRC, 1, 1, 2.37189981e+01
SRC, 2, 3, 0.
DRN, 1, 1, 5.07983018e+01
DRN, 2, 2, 2.70793037e+01
DRN, 3, 3, 2.70793037e+01
GATE, 1, 1, 3.09477756e+01
OXI, 2, 3, 0.
*NODE PRINT, NSET=NALL, FREQUENCY=1
U
*NODE PRINT, NSET=DRN, FREQUENCY=1, TOTALS=YES
RF
*OUTPUT, FIELD, FREQUENCY=1
*NODE OUTPUT
U
*ELEMENT OUTPUT, ELSET=EVIS
UVARM
*END STEP
